israel.m
function mpc = israel() 

mpc.version = '2';

mpc.baseMVA = 100;

%%Bus Data
%	bus_i	type	Pd			Qd	Gs	Bs	area	Vm	Va	baseKV	zone	Vmax	Vmin

mpc.bus = [
	1	3	1.685152454066723e-7	0.0	0	0	1	1.0	0	132.0	1	1.1	0.9;
	2	1	505.54573638853236	0.0	0	0	1	1.0	0	380.0	1	1.1	0.9;
	3	2	1.1412876800648849e-7	0.0	0	0	1	1.0	0	132.0	1	1.1	0.9;
	4	1	2.2773843832930216e-7	0.0	0	0	1	1.0	0	132.0	1	1.1	0.9;
	5	2	1.1888326907296072e-7	0.0	0	0	1	1.0	0	132.0	1	1.1	0.9;
	6	1	356.6498073377655	0.0	0	0	1	1.0	0	380.0	1	1.1	0.9;
	7	2	1.8159861656105845	0.0	0	0	1	1.0	0	132.0	1	1.1	0.9;
	8	2	68.50872516476831	0.0	0	0	1	1.0	0	132.0	1	1.1	0.9;
	9	2	1.493239189517978e-7	0.0	0	0	1	1.0	0	132.0	1	1.1	0.9;
	10	2	447.97175700471735	0.0	0	0	1	1.0	0	380.0	1	1.1	0.9;
	11	2	689.3158694092452	0.0	0	0	1	1.0	0	380.0	1	1.1	0.9;
	12	1	441.1568496133202	0.0	0	0	1	1.0	0	380.0	1	1.1	0.9;
	13	2	674.5119160307297	0.0	0	0	1	1.0	0	380.0	1	1.1	0.9;
	14	1	458.79852531468646	0.0	0	0	1	1.0	0	380.0	1	1.1	0.9;
	15	2	468.43311154701763	0.0	0	0	1	1.0	0	380.0	1	1.1	0.9;
	16	2	1050.4733385070745	0.0	0	0	1	1.0	0	380.0	1	1.1	0.9;
	17	1	3.548740312469825e-7	0.0	0	0	1	1.0	0	132.0	1	1.1	0.9;
	18	1	1064.622094095821	0.0	0	0	1	1.0	0	380.0	1	1.1	0.9;
	19	2	1.3824802324657954e-7	0.0	0	0	1	1.0	0	132.0	1	1.1	0.9;
	20	1	414.7440698779866	0.0	0	0	1	1.0	0	380.0	1	1.1	0.9;
	21	1	3.0578492703292243e-7	0.0	0	0	1	1.0	0	132.0	1	1.1	0.9;
	22	2	1.1267432229609302e-7	0.0	0	0	1	1.0	0	132.0	1	1.1	0.9;
	23	2	3.097460231552693e-7	0.0	0	0	1	1.0	0	132.0	1	1.1	0.9;
	24	1	929.2380697755534	0.0	0	0	1	1.0	0	380.0	1	1.1	0.9;
	25	1	1.7527221595464615e-7	0.0	0	0	1	1.0	0	132.0	1	1.1	0.9;
	26	2	0.6699691671498487	0.0	0	0	1	1.0	0	132.0	1	1.1	0.9;
	27	2	6.759359902623043	0.0	0	0	1	1.0	0	132.0	1	1.1	0.9;
	28	2	1070.0128936907633	0.0	0	0	1	1.0	0	380.0	1	1.1	0.9;
	29	2	504.0247038996861	0.0	0	0	1	1.0	0	380.0	1	1.1	0.9;
	30	2	707.9550933513289	0.0	0	0	1	1.0	0	380.0	1	1.1	0.9;
	31	2	675.1478509125997	0.0	0	0	1	1.0	0	380.0	1	1.1	0.9;
	32	2	463.64427066782946	0.0	0	0	1	1.0	0	380.0	1	1.1	0.9;
];

%%Generator Data
%	bus	Pg	Qg	Qmax	Qmin	Vg	mBase	status	Pmax	Pmin	Pc1	Pc2   Qc1min  Qc1max  Qc2min  Qc2max  ramp_agc ramp_10 ramp_30 ramp_q  apf

mpc.gen = [
	32	0.0	0.0	70.5	-70.5	1.0	100	1	141.0	0.0	0	0	0	0	0	0	0	0	0.0	0	0;
	32	0.0	0.0	70.5	-70.5	1.0	100	1	141.0	0.0	0	0	0	0	0	0	0	0	0.0	0	0;
	1	0.0	0.0	180.0	-180.0	1.0	100	1	360.0	0.0	0	0	0	0	0	0	0	0	0.0	0	0;
	1	0.0	0.0	180.0	-180.0	1.0	100	1	360.0	0.0	0	0	0	0	0	0	0	0	0.0	0	0;
	1	0.0	0.0	180.0	-180.0	1.0	100	1	360.0	0.0	0	0	0	0	0	0	0	0	0.0	0	0;
	1	0.0	0.0	180.0	-180.0	1.0	100	1	360.0	0.0	0	0	0	0	0	0	0	0	0.0	0	0;
	1	0.0	0.0	287.5	-287.5	1.0	100	1	575.0	0.0	0	0	0	0	0	0	0	0	0.0	0	0;
	1	0.0	0.0	287.5	-287.5	1.0	100	1	575.0	0.0	0	0	0	0	0	0	0	0	0.0	0	0;
	30	0.0	0.0	107.0	-107.0	1.0	100	1	214.0	0.0	0	0	0	0	0	0	0	0	0.0	0	0;
	30	0.0	0.0	107.0	-107.0	1.0	100	1	214.0	0.0	0	0	0	0	0	0	0	0	0.0	0	0;
	16	0.0	0.0	114.0	-114.0	1.0	100	1	228.0	0.0	0	0	0	0	0	0	0	0	0.0	0	0;
	16	0.0	0.0	114.0	-114.0	1.0	100	1	228.0	0.0	0	0	0	0	0	0	0	0	0.0	0	0;
	16	0.0	0.0	114.0	-114.0	1.0	100	1	228.0	0.0	0	0	0	0	0	0	0	0	0.0	0	0;
	16	0.0	0.0	114.0	-114.0	1.0	100	1	228.0	0.0	0	0	0	0	0	0	0	0	0.0	0	0;
	10	0.0	0.0	287.5	-287.5	1.0	100	1	575.0	0.0	0	0	0	0	0	0	0	0	0.0	0	0;
	10	0.0	0.0	287.5	-287.5	1.0	100	1	575.0	0.0	0	0	0	0	0	0	0	0	0.0	0	0;
	10	0.0	0.0	275.0	-275.0	1.0	100	1	550.0	0.0	0	0	0	0	0	0	0	0	0.0	0	0;
	10	0.0	0.0	275.0	-275.0	1.0	100	1	550.0	0.0	0	0	0	0	0	0	0	0	0.0	0	0;
	3	0.0	0.0	55.0	-55.0	1.0	100	1	110.0	0.0	0	0	0	0	0	0	0	0	0.0	0	0;
	3	0.0	0.0	55.0	-55.0	1.0	100	1	110.0	0.0	0	0	0	0	0	0	0	0	0.0	0	0;
	3	0.0	0.0	114.0	-114.0	1.0	100	1	228.0	0.0	0	0	0	0	0	0	0	0	0.0	0	0;
	3	0.0	0.0	67.5	-67.5	1.0	100	1	135.0	0.0	0	0	0	0	0	0	0	0	0.0	0	0;
	3	0.0	0.0	181.5	-181.5	1.0	100	1	363.0	0.0	0	0	0	0	0	0	0	0	0.0	0	0;
	32	0.0	0.0	187.0	-187.0	1.0	100	1	374.0	0.0	0	0	0	0	0	0	0	0	0.0	0	0;
	32	0.0	0.0	187.0	-187.0	1.0	100	1	374.0	0.0	0	0	0	0	0	0	0	0	0.0	0	0;
	29	0.0	0.0	128.0	-128.0	1.0	100	1	256.0	0.0	0	0	0	0	0	0	0	0	0.0	0	0;
	29	0.0	0.0	59.5	-59.5	1.0	100	1	119.0	0.0	0	0	0	0	0	0	0	0	0.0	0	0;
	29	0.0	0.0	187.5	-187.5	1.0	100	1	375.0	0.0	0	0	0	0	0	0	0	0	0.0	0	0;
	29	0.0	0.0	179.5	-179.5	1.0	100	1	359.0	0.0	0	0	0	0	0	0	0	0	0.0	0	0;
	29	0.0	0.0	57.5	-57.5	1.0	100	1	115.0	0.0	0	0	0	0	0	0	0	0	0.0	0	0;
	29	0.0	0.0	57.5	-57.5	1.0	100	1	115.0	0.0	0	0	0	0	0	0	0	0	0.0	0	0;
	29	0.0	0.0	50.0	-50.0	1.0	100	1	100.0	0.0	0	0	0	0	0	0	0	0	0.0	0	0;
	29	0.0	0.0	82.5	-82.5	1.0	100	1	165.0	0.0	0	0	0	0	0	0	0	0	0.0	0	0;
	29	0.0	0.0	82.5	-82.5	1.0	100	1	165.0	0.0	0	0	0	0	0	0	0	0	0.0	0	0;
	29	0.0	0.0	165.0	-165.0	1.0	100	1	330.0	0.0	0	0	0	0	0	0	0	0	0.0	0	0;
	29	0.0	0.0	57.5	-57.5	1.0	100	1	115.0	0.0	0	0	0	0	0	0	0	0	0.0	0	0;
	29	0.0	0.0	57.5	-57.5	1.0	100	1	115.0	0.0	0	0	0	0	0	0	0	0	0.0	0	0;
	29	0.0	0.0	50.0	-50.0	1.0	100	1	100.0	0.0	0	0	0	0	0	0	0	0	0.0	0	0;
	29	0.0	0.0	82.5	-82.5	1.0	100	1	165.0	0.0	0	0	0	0	0	0	0	0	0.0	0	0;
	29	0.0	0.0	82.5	-82.5	1.0	100	1	165.0	0.0	0	0	0	0	0	0	0	0	0.0	0	0;
	29	0.0	0.0	165.0	-165.0	1.0	100	1	330.0	0.0	0	0	0	0	0	0	0	0	0.0	0	0;
	5	0.0	0.0	50.0	-50.0	1.0	100	1	100.0	0.0	0	0	0	0	0	0	0	0	0.0	0	0;
	5	0.0	0.0	50.0	-50.0	1.0	100	1	100.0	0.0	0	0	0	0	0	0	0	0	0.0	0	0;
	5	0.0	0.0	57.5	-57.5	1.0	100	1	115.0	0.0	0	0	0	0	0	0	0	0	0.0	0	0;
	5	0.0	0.0	57.5	-57.5	1.0	100	1	115.0	0.0	0	0	0	0	0	0	0	0	0.0	0	0;
	5	0.0	0.0	52.5	-52.5	1.0	100	1	105.0	0.0	0	0	0	0	0	0	0	0	0.0	0	0;
	5	0.0	0.0	83.75	-83.75	1.0	100	1	167.5	0.0	0	0	0	0	0	0	0	0	0.0	0	0;
	5	0.0	0.0	83.75	-83.75	1.0	100	1	167.5	0.0	0	0	0	0	0	0	0	0	0.0	0	0;
	5	0.0	0.0	167.5	-167.5	1.0	100	1	335.0	0.0	0	0	0	0	0	0	0	0	0.0	0	0;
	5	0.0	0.0	59.0	-59.0	1.0	100	1	118.0	0.0	0	0	0	0	0	0	0	0	0.0	0	0;
	5	0.0	0.0	59.0	-59.0	1.0	100	1	118.0	0.0	0	0	0	0	0	0	0	0	0.0	0	0;
	5	0.0	0.0	125.0	-125.0	1.0	100	1	250.0	0.0	0	0	0	0	0	0	0	0	0.0	0	0;
	5	0.0	0.0	58.0	-58.0	1.0	100	1	116.0	0.0	0	0	0	0	0	0	0	0	0.0	0	0;
	5	0.0	0.0	183.0	-183.0	1.0	100	1	366.0	0.0	0	0	0	0	0	0	0	0	0.0	0	0;
	16	0.0	0.0	55.0	-55.0	1.0	100	1	110.0	0.0	0	0	0	0	0	0	0	0	0.0	0	0;
	16	0.0	0.0	55.0	-55.0	1.0	100	1	110.0	0.0	0	0	0	0	0	0	0	0	0.0	0	0;
	16	0.0	0.0	117.5	-117.5	1.0	100	1	235.0	0.0	0	0	0	0	0	0	0	0	0.0	0	0;
	16	0.0	0.0	62.5	-62.5	1.0	100	1	125.0	0.0	0	0	0	0	0	0	0	0	0.0	0	0;
	16	0.0	0.0	180.0	-180.0	1.0	100	1	360.0	0.0	0	0	0	0	0	0	0	0	0.0	0	0;
	11	0.0	0.0	74.0	-74.0	1.0	100	1	148.0	0.0	0	0	0	0	0	0	0	0	0.0	0	0;
	11	0.0	0.0	74.0	-74.0	1.0	100	1	148.0	0.0	0	0	0	0	0	0	0	0	0.0	0	0;
	11	0.0	0.0	74.0	-74.0	1.0	100	1	148.0	0.0	0	0	0	0	0	0	0	0	0.0	0	0;
	11	0.0	0.0	74.0	-74.0	1.0	100	1	148.0	0.0	0	0	0	0	0	0	0	0	0.0	0	0;
	11	0.0	0.0	186.0	-186.0	1.0	100	1	372.0	0.0	0	0	0	0	0	0	0	0	0.0	0	0;
	11	0.0	0.0	186.0	-186.0	1.0	100	1	372.0	0.0	0	0	0	0	0	0	0	0	0.0	0	0;
	16	0.0	0.0	118.0	-118.0	1.0	100	1	236.0	0.0	0	0	0	0	0	0	0	0	0.0	0	0;
	16	0.0	0.0	70.5	-70.5	1.0	100	1	141.0	0.0	0	0	0	0	0	0	0	0	0.0	0	0;
	16	0.0	0.0	188.5	-188.5	1.0	100	1	377.0	0.0	0	0	0	0	0	0	0	0	0.0	0	0;
	16	0.0	0.0	130.0	-130.0	1.0	100	1	260.0	0.0	0	0	0	0	0	0	0	0	0.0	0	0;
	16	0.0	0.0	67.0	-67.0	1.0	100	1	134.0	0.0	0	0	0	0	0	0	0	0	0.0	0	0;
	16	0.0	0.0	197.0	-197.0	1.0	100	1	394.0	0.0	0	0	0	0	0	0	0	0	0.0	0	0;
	23	0.0	0.0	17.0	-17.0	1.0	100	1	34.0	0.0	0	0	0	0	0	0	0	0	0.0	0	0;
	23	0.0	0.0	17.0	-17.0	1.0	100	1	34.0	0.0	0	0	0	0	0	0	0	0	0.0	0	0;
	8	0.0	0.0	17.0	-17.0	1.0	100	1	34.0	0.0	0	0	0	0	0	0	0	0	0.0	0	0;
	15	0.0	0.0	20.0	-20.0	1.0	100	1	40.0	0.0	0	0	0	0	0	0	0	0	0.0	0	0;
	15	0.0	0.0	20.0	-20.0	1.0	100	1	40.0	0.0	0	0	0	0	0	0	0	0	0.0	0	0;
	32	0.0	0.0	20.0	-20.0	1.0	100	1	40.0	0.0	0	0	0	0	0	0	0	0	0.0	0	0;
	32	0.0	0.0	20.0	-20.0	1.0	100	1	40.0	0.0	0	0	0	0	0	0	0	0	0.0	0	0;
	1	0.0	0.0	20.0	-20.0	1.0	100	1	40.0	0.0	0	0	0	0	0	0	0	0	0.0	0	0;
	1	0.0	0.0	20.0	-20.0	1.0	100	1	40.0	0.0	0	0	0	0	0	0	0	0	0.0	0	0;
	1	0.0	0.0	25.0	-25.0	1.0	100	1	50.0	0.0	0	0	0	0	0	0	0	0	0.0	0	0;
	1	0.0	0.0	7.5	-7.5	1.0	100	1	15.0	0.0	0	0	0	0	0	0	0	0	0.0	0	0;
	13	0.0	0.0	5.5	-5.5	1.0	100	1	11.0	0.0	0	0	0	0	0	0	0	0	0.0	0	0;
	23	0.0	0.0	20.0	-20.0	1.0	100	1	40.0	0.0	0	0	0	0	0	0	0	0	0.0	0	0;
	19	0.0	0.0	20.0	-20.0	1.0	100	1	40.0	0.0	0	0	0	0	0	0	0	0	0.0	0	0;
	16	0.0	0.0	5.0	-5.0	1.0	100	1	10.0	0.0	0	0	0	0	0	0	0	0	0.0	0	0;
	9	0.0	0.0	10.0	-10.0	1.0	100	1	20.0	0.0	0	0	0	0	0	0	0	0	0.0	0	0;
	9	0.0	0.0	10.0	-10.0	1.0	100	1	20.0	0.0	0	0	0	0	0	0	0	0	0.0	0	0;
	8	0.0	0.0	7.5	-7.5	1.0	100	1	15.0	0.0	0	0	0	0	0	0	0	0	0.0	0	0;
	8	0.0	0.0	21.5	-21.5	1.0	100	1	43.0	0.0	0	0	0	0	0	0	0	0	0.0	0	0;
	16	0.0	0.0	13.0	-13.0	1.0	100	1	26.0	0.0	0	0	0	0	0	0	0	0	0.0	0	0;
	9	0.0	0.0	43.5	-43.5	1.0	100	1	87.0	0.0	0	0	0	0	0	0	0	0	0.0	0	0;
	9	0.0	0.0	15.0	-15.0	1.0	100	1	30.0	0.0	0	0	0	0	0	0	0	0	0.0	0	0;
	9	0.0	0.0	15.0	-15.0	1.0	100	1	30.0	0.0	0	0	0	0	0	0	0	0	0.0	0	0;
	9	0.0	0.0	13.5	-13.5	1.0	100	1	27.0	0.0	0	0	0	0	0	0	0	0	0.0	0	0;
	16	0.0	0.0	24.5	-24.5	1.0	100	1	49.0	0.0	0	0	0	0	0	0	0	0	0.0	0	0;
	16	0.0	0.0	30.0	-30.0	1.0	100	1	60.0	0.0	0	0	0	0	0	0	0	0	0.0	0	0;
	3	0.0	0.0	234.0	-234.0	1.0	100	1	468.0	0.0	0	0	0	0	0	0	0	0	0.0	0	0;
	28	0.0	0.0	24.5	-24.5	1.0	100	1	49.0	0.0	0	0	0	0	0	0	0	0	0.0	0	0;
	28	0.0	0.0	24.5	-24.5	1.0	100	1	49.0	0.0	0	0	0	0	0	0	0	0	0.0	0	0;
	28	0.0	0.0	12.0	-12.0	1.0	100	1	24.0	0.0	0	0	0	0	0	0	0	0	0.0	0	0;
	9	0.0	0.0	215.0	-215.0	1.0	100	1	430.0	0.0	0	0	0	0	0	0	0	0	0.0	0	0;
	9	0.0	0.0	215.0	-215.0	1.0	100	1	430.0	0.0	0	0	0	0	0	0	0	0	0.0	0	0;
	5	0.0	0.0	18.75	-18.75	1.0	100	1	37.5	0.0	0	0	0	0	0	0	0	0	0.0	0	0;
	5	0.0	0.0	0.0	-0.0	1.0	100	1	0.0	0.0	0	0	0	0	0	0	0	0	0.0	0	0;
	26	0.0	0.0	20.0	-20.0	1.0	100	1	40.0	0.0	0	0	0	0	0	0	0	0	0.0	0	0;
	26	0.0	0.0	0.0	-0.0	1.0	100	1	0.0	0.0	0	0	0	0	0	0	0	0	0.0	0	0;
	22	0.0	0.0	27.5	-27.5	1.0	100	1	55.0	0.0	0	0	0	0	0	0	0	0	0.0	0	0;
	16	0.0	0.0	228.5	-228.5	1.0	100	1	457.0	0.0	0	0	0	0	0	0	0	0	0.0	0	0;
	16	0.0	0.0	227.5	-227.5	1.0	100	1	455.0	0.0	0	0	0	0	0	0	0	0	0.0	0	0;
	16	0.0	0.0	25.0	-25.0	1.0	100	1	50.0	0.0	0	0	0	0	0	0	0	0	0.0	0	0;
	16	0.0	0.0	7.25	-7.25	1.0	100	1	14.5	0.0	0	0	0	0	0	0	0	0	0.0	0	0;
	5	0.0	0.0	24.0	-24.0	1.0	100	1	48.0	0.0	0	0	0	0	0	0	0	0	0.0	0	0;
	5	0.0	0.0	24.0	-24.0	1.0	100	1	48.0	0.0	0	0	0	0	0	0	0	0	0.0	0	0;
	5	0.0	0.0	15.2	-15.2	1.0	100	1	30.4	0.0	0	0	0	0	0	0	0	0	0.0	0	0;
	16	0.0	0.0	25.0	-25.0	1.0	100	1	50.0	0.0	0	0	0	0	0	0	0	0	0.0	0	0;
	5	0.0	0.0	9.0	-9.0	1.0	100	1	18.0	0.0	0	0	0	0	0	0	0	0	0.0	0	0;
	11	0.0	0.0	25.0	-25.0	1.0	100	1	50.0	0.0	0	0	0	0	0	0	0	0	0.0	0	0;
	11	0.0	0.0	25.0	-25.0	1.0	100	1	50.0	0.0	0	0	0	0	0	0	0	0	0.0	0	0;
	11	0.0	0.0	20.0	-20.0	1.0	100	1	40.0	0.0	0	0	0	0	0	0	0	0	0.0	0	0;
	7	0.0	0.0	30.0	-30.0	1.0	100	1	60.0	0.0	0	0	0	0	0	0	0	0	0.0	0	0;
	7	0.0	0.0	85.0	-85.0	1.0	100	1	170.0	0.0	0	0	0	0	0	0	0	0	0.0	0	0;
	7	0.0	0.0	30.0	-30.0	1.0	100	1	60.0	0.0	0	0	0	0	0	0	0	0	0.0	0	0;
	7	0.0	0.0	15.0	-15.0	1.0	100	1	30.0	0.0	0	0	0	0	0	0	0	0	0.0	0	0;
	7	0.0	0.0	15.0	-15.0	1.0	100	1	30.0	0.0	0	0	0	0	0	0	0	0	0.0	0	0;
	32	0.0	0.0	8.0	-8.0	1.0	100	1	16.0	0.0	0	0	0	0	0	0	0	0	0.0	0	0;
	32	0.0	0.0	19.0	-19.0	1.0	100	1	38.0	0.0	0	0	0	0	0	0	0	0	0.0	0	0;
	13	0.0	0.0	0.975	-0.975	1.0	100	1	1.95	0.0	0	0	0	0	0	0	0	0	0.0	0	0;
	19	0.0	0.0	2.1	-2.1	1.0	100	1	4.2	0.0	0	0	0	0	0	0	0	0	0.0	0	0;
	31	0.0	0.0	0.85	-0.85	1.0	100	1	1.7	0.0	0	0	0	0	0	0	0	0	0.0	0	0;
	3	0.0	0.0	3.4	-3.4	1.0	100	1	6.8	0.0	0	0	0	0	0	0	0	0	0.0	0	0;
	3	0.0	0.0	2.55	-2.55	1.0	100	1	5.1	0.0	0	0	0	0	0	0	0	0	0.0	0	0;
	3	0.0	0.0	4.675	-4.675	1.0	100	1	9.35	0.0	0	0	0	0	0	0	0	0	0.0	0	0;
	3	0.0	0.0	10.625	-10.625	1.0	100	1	21.25	0.0	0	0	0	0	0	0	0	0	0.0	0	0;
	31	0.0	0.0	5.5	-5.5	1.0	100	1	11.0	0.0	0	0	0	0	0	0	0	0	0.0	0	0;
	3	0.0	0.0	22.5	-22.5	1.0	100	1	45.0	0.0	0	0	0	0	0	0	0	0	0.0	0	0;
	27	0.0	0.0	15.0	-15.0	1.0	100	1	30.0	0.0	0	0	0	0	0	0	0	0	0.0	0	0;
	27	0.0	0.0	68.0	-68.0	1.0	100	1	136.0	0.0	0	0	0	0	0	0	0	0	0.0	0	0;
	27	0.0	0.0	65.0	-65.0	1.0	100	1	130.0	0.0	0	0	0	0	0	0	0	0	0.0	0	0;
	23	0.0	0.0	30.0	-30.0	1.0	100	1	60.0	0.0	0	0	0	0	0	0	0	0	0.0	0	0;
	3	0.0	0.0	75.0	-75.0	1.0	100	1	150.0	0.0	0	0	0	0	0	0	0	0	0.0	0	0;
	3	0.0	0.0	75.0	-75.0	1.0	100	1	150.0	0.0	0	0	0	0	0	0	0	0	0.0	0	0;
	31	0.0	0.0	25.0	-25.0	1.0	100	1	50.0	0.0	0	0	0	0	0	0	0	0	0.0	0	0;
	31	0.0	0.0	25.0	-25.0	1.0	100	1	50.0	0.0	0	0	0	0	0	0	0	0	0.0	0	0;
	31	0.0	0.0	24.0	-24.0	1.0	100	1	48.0	0.0	0	0	0	0	0	0	0	0	0.0	0	0;
	3	0.0	0.0	25.0	-25.0	1.0	100	1	50.0	0.0	0	0	0	0	0	0	0	0	0.0	0	0;
	3	0.0	0.0	11.95	-11.95	1.0	100	1	23.9	0.0	0	0	0	0	0	0	0	0	0.0	0	0;
	29	0.0	0.0	25.0	-25.0	1.0	100	1	50.0	0.0	0	0	0	0	0	0	0	0	0.0	0	0;
	29	0.0	0.0	11.95	-11.95	1.0	100	1	23.9	0.0	0	0	0	0	0	0	0	0	0.0	0	0;
	5	0.0	0.0	60.0	-60.0	1.0	100	1	120.0	0.0	0	0	0	0	0	0	0	0	0.0	0	0;
	19	0.0	0.0	25.0	-25.0	1.0	100	1	50.0	0.0	0	0	0	0	0	0	0	0	0.0	0	0;
	19	0.0	0.0	12.6	-12.6	1.0	100	1	25.2	0.0	0	0	0	0	0	0	0	0	0.0	0	0;
	16	0.0	0.0	225.5	-225.5	1.0	100	1	451.0	0.0	0	0	0	0	0	0	0	0	0.0	0	0;
];

%%Branch Data
%	fbus	tbus	r			x			b	rateA	rateB	rateC	ratio	angle	status	angmin	angmax

mpc.branch = [
	3	4	0.03020907520506198	0.08333537987603305	0.0	140.0	0	0	0	0	1	-360	360;
	1	4	0.015550421130582495	0.04289771346367585	0.0	140.0	0	0	0	0	1	-360	360;
	1	4	0.015857874468032596	0.04374586060146923	0.0	140.0	0	0	0	0	1	-360	360;
	2	12	0.00040769843150415506	0.0038585744410214685	0.0	1700.0	0	0	0	0	1	-360	360;
	2	12	0.00040769843150415506	0.0038585744410214685	0.0	1700.0	0	0	0	0	1	-360	360;
	14	15	0.0006633805729778393	0.006278423279968835	0.0	1700.0	0	0	0	0	1	-360	360;
	14	15	0.0006633805729778393	0.006278423279968835	0.0	1700.0	0	0	0	0	1	-360	360;
	10	16	0.00036841930561772854	0.0034868255710249307	0.0	1700.0	0	0	0	0	1	-360	360;
	10	16	0.00036841930561772854	0.0034868255710249307	0.0	1700.0	0	0	0	0	1	-360	360;
	11	16	0.0004089614445096952	0.003870527956966759	0.0	1700.0	0	0	0	0	1	-360	360;
	11	16	0.0004089614445096952	0.003870527956966759	0.0	1700.0	0	0	0	0	1	-360	360;
	10	20	0.0006642069763601108	0.0062862445976939055	0.0	1700.0	0	0	0	0	1	-360	360;
	10	20	0.0006642069763601108	0.0062862445976939055	0.0	1700.0	0	0	0	0	1	-360	360;
	6	20	0.0007877637111745151	0.007455620837901663	0.0	1700.0	0	0	0	0	1	-360	360;
	6	20	0.0007877637111745151	0.007455620837901663	0.0	1700.0	0	0	0	0	1	-360	360;
	19	21	0.02056781870272271	0.05673881021440749	0.0	140.0	0	0	0	0	1	-360	360;
	19	21	0.02056781870272271	0.05673881021440749	0.0	140.0	0	0	0	0	1	-360	360;
	19	21	0.02122231588682277	0.05854431968778696	0.0	140.0	0	0	0	0	1	-360	360;
	19	21	0.02122231588682277	0.05854431968778696	0.0	140.0	0	0	0	0	1	-360	360;
	9	22	0.015503443558480339	0.04276812016132507	0.0	140.0	0	0	0	0	1	-360	360;
	9	22	0.015503443558480339	0.04276812016132507	0.0	140.0	0	0	0	0	1	-360	360;
	9	22	0.01587271881473829	0.04378681052341597	0.0	140.0	0	0	0	0	1	-360	360;
	9	22	0.01587271881473829	0.04378681052341597	0.0	140.0	0	0	0	0	1	-360	360;
	17	23	0.03538159745245064	0.0976044067653811	0.0	140.0	0	0	0	0	1	-360	360;
	17	23	0.03538159745245064	0.0976044067653811	0.0	140.0	0	0	0	0	1	-360	360;
	16	24	0.0008258942662973793	0.007816499306028768	0.0	1700.0	0	0	0	0	1	-360	360;
	16	24	0.0008258942662973793	0.007816499306028768	0.0	1700.0	0	0	0	0	1	-360	360;
	16	24	0.0008555674496177285	0.008097334791024929	0.0	1700.0	0	0	0	0	1	-360	360;
	16	24	0.0008555674496177285	0.008097334791024929	0.0	1700.0	0	0	0	0	1	-360	360;
	4	25	0.015287551518709822	0.042172555913682276	0.0	140.0	0	0	0	0	1	-360	360;
	4	25	0.015287551518709822	0.042172555913682276	0.0	140.0	0	0	0	0	1	-360	360;
	4	25	0.014634584797299325	0.040371268406342975	0.0	140.0	0	0	0	0	1	-360	360;
	4	25	0.014634584797299325	0.040371268406342975	0.0	140.0	0	0	0	0	1	-360	360;
	8	26	0.06334496632349058	0.1747447346854913	0.0	140.0	0	0	0	0	1	-360	360;
	8	26	0.06334496632349058	0.1747447346854913	0.0	140.0	0	0	0	0	1	-360	360;
	8	26	0.05976343324827823	0.16486464344352617	0.0	140.0	0	0	0	0	1	-360	360;
	8	26	0.05976343324827823	0.16486464344352617	0.0	140.0	0	0	0	0	1	-360	360;
	26	27	0.09309948278446395	0.2568261594054178	0.0	140.0	0	0	0	0	1	-360	360;
	26	27	0.09309948278446395	0.2568261594054178	0.0	140.0	0	0	0	0	1	-360	360;
	5	27	0.01134892710660583	0.031307385121671256	0.0	140.0	0	0	0	0	1	-360	360;
	5	27	0.01134892710660583	0.031307385121671256	0.0	140.0	0	0	0	0	1	-360	360;
	7	27	0.04523770143376951	0.12479365912764004	0.0	140.0	0	0	0	0	1	-360	360;
	7	27	0.04523770143376951	0.12479365912764004	0.0	140.0	0	0	0	0	1	-360	360;
	20	28	0.0012649767074736841	0.011972100981447369	0.0	1700.0	0	0	0	0	1	-360	360;
	20	28	0.0012649767074736841	0.011972100981447369	0.0	1700.0	0	0	0	0	1	-360	360;
	18	28	7.86839190498615e-5	0.0007446870910076178	0.0	1700.0	0	0	0	0	1	-360	360;
	18	28	7.86839190498615e-5	0.0007446870910076178	0.0	1700.0	0	0	0	0	1	-360	360;
	2	29	0.0003818751911191135	0.0036141759159487533	0.0	1700.0	0	0	0	0	1	-360	360;
	2	29	0.0003818751911191135	0.0036141759159487533	0.0	1700.0	0	0	0	0	1	-360	360;
	15	29	0.0011315637115844877	0.010709442270353187	0.0	1700.0	0	0	0	0	1	-360	360;
	15	29	0.0011315637115844877	0.010709442270353187	0.0	1700.0	0	0	0	0	1	-360	360;
	11	30	0.00013685739636288088	0.0012952575012915512	0.0	1700.0	0	0	0	0	1	-360	360;
	11	30	0.00013685739636288088	0.0012952575012915512	0.0	1700.0	0	0	0	0	1	-360	360;
	13	30	0.00043573698306371197	0.004123939303995846	0.0	1700.0	0	0	0	0	1	-360	360;
	13	30	0.00043573698306371197	0.004123939303995846	0.0	1700.0	0	0	0	0	1	-360	360;
	28	30	0.00035820700237950136	0.0033901734153774237	0.0	1700.0	0	0	0	0	1	-360	360;
	28	30	0.00035820700237950136	0.0033901734153774237	0.0	1700.0	0	0	0	0	1	-360	360;
	13	31	0.0006239623785180055	0.005905358225259696	0.0	1700.0	0	0	0	0	1	-360	360;
	13	31	0.0006239623785180055	0.005905358225259696	0.0	1700.0	0	0	0	0	1	-360	360;
	2	31	0.00024071642219113568	0.0022782089957375344	0.0	1700.0	0	0	0	0	1	-360	360;
	2	31	0.00024071642219113568	0.0022782089957375344	0.0	1700.0	0	0	0	0	1	-360	360;
	18	31	0.0007450372529972301	0.007051245430152356	0.0	1700.0	0	0	0	0	1	-360	360;
	18	31	0.0007450372529972301	0.007051245430152356	0.0	1700.0	0	0	0	0	1	-360	360;
	14	32	0.0005498824184736842	0.0052042443176973695	0.0	1700.0	0	0	0	0	1	-360	360;
	14	32	0.0005498824184736842	0.0052042443176973695	0.0	1700.0	0	0	0	0	1	-360	360;
	12	32	0.00015734514925761772	0.001489159448331025	0.0	1700.0	0	0	0	0	1	-360	360;
	12	32	0.00015734514925761772	0.001489159448331025	0.0	1700.0	0	0	0	0	1	-360	360;
	29	32	0.00018784619783379498	0.0017778300866412742	0.0	1700.0	0	0	0	0	1	-360	360;
	29	32	0.00018784619783379498	0.0017778300866412742	0.0	1700.0	0	0	0	0	1	-360	360;
	19	20	0.0013850415512465374	0.038088642659279776	0.0	1000.0	0	0	0	0	1	-360	360;
	9	10	0.0013850415512465374	0.038088642659279776	0.0	1000.0	0	0	0	0	1	-360	360;
	17	18	0.0013850415512465374	0.038088642659279776	0.0	1000.0	0	0	0	0	1	-360	360;
	5	6	0.0013850415512465374	0.038088642659279776	0.0	1000.0	0	0	0	0	1	-360	360;
	1	2	0.0013850415512465374	0.038088642659279776	0.0	1000.0	0	0	0	0	1	-360	360;
	23	24	0.0013850415512465374	0.038088642659279776	0.0	1000.0	0	0	0	0	1	-360	360;
];

%%OPF Data
% generator cost data
%	1	startup	shutdown	n	x1	y1	...	xn	yn
%	2	startup	shutdown	n	c(n-1)	...	c0

mpc.gencost = [
	2	0	0	2	0.0	0;
	2	0	0	2	0.0	0;
	2	0	0	2	35	0;
	2	0	0	2	35	0;
	2	0	0	2	35	0;
	2	0	0	2	35	0;
	2	0	0	2	35	0;
	2	0	0	2	35	0;
	2	0	0	2	0.0	0;
	2	0	0	2	0.0	0;
	2	0	0	2	0.0	0;
	2	0	0	2	0.0	0;
	2	0	0	2	0.0	0;
	2	0	0	2	0.0	0;
	2	0	0	2	35	0;
	2	0	0	2	35	0;
	2	0	0	2	35	0;
	2	0	0	2	35	0;
	2	0	0	2	10	0;
	2	0	0	2	10	0;
	2	0	0	2	0.0	0;
	2	0	0	2	0.0	0;
	2	0	0	2	0.0	0;
	2	0	0	2	0.0	0;
	2	0	0	2	0.0	0;
	2	0	0	2	0.0	0;
	2	0	0	2	0.0	0;
	2	0	0	2	0.0	0;
	2	0	0	2	0.0	0;
	2	0	0	2	0.0	0;
	2	0	0	2	0.0	0;
	2	0	0	2	0.0	0;
	2	0	0	2	0.0	0;
	2	0	0	2	0.0	0;
	2	0	0	2	0.0	0;
	2	0	0	2	0.0	0;
	2	0	0	2	0.0	0;
	2	0	0	2	0.0	0;
	2	0	0	2	0.0	0;
	2	0	0	2	0.0	0;
	2	0	0	2	0.0	0;
	2	0	0	2	0.0	0;
	2	0	0	2	0.0	0;
	2	0	0	2	0.0	0;
	2	0	0	2	0.0	0;
	2	0	0	2	0.0	0;
	2	0	0	2	0.0	0;
	2	0	0	2	0.0	0;
	2	0	0	2	0.0	0;
	2	0	0	2	0.0	0;
	2	0	0	2	0.0	0;
	2	0	0	2	0.0	0;
	2	0	0	2	0.0	0;
	2	0	0	2	0.0	0;
	2	0	0	2	10	0;
	2	0	0	2	10	0;
	2	0	0	2	0.0	0;
	2	0	0	2	0.0	0;
	2	0	0	2	0.0	0;
	2	0	0	2	0.0	0;
	2	0	0	2	0.0	0;
	2	0	0	2	0.0	0;
	2	0	0	2	0.0	0;
	2	0	0	2	0.0	0;
	2	0	0	2	0.0	0;
	2	0	0	2	0.0	0;
	2	0	0	2	0.0	0;
	2	0	0	2	0.0	0;
	2	0	0	2	0.0	0;
	2	0	0	2	0.0	0;
	2	0	0	2	0.0	0;
	2	0	0	2	10	0;
	2	0	0	2	10	0;
	2	0	0	2	10	0;
	2	0	0	2	10	0;
	2	0	0	2	10	0;
	2	0	0	2	10	0;
	2	0	0	2	10	0;
	2	0	0	2	10	0;
	2	0	0	2	10	0;
	2	0	0	2	10	0;
	2	0	0	2	10	0;
	2	0	0	2	10	0;
	2	0	0	2	10	0;
	2	0	0	2	10	0;
	2	0	0	2	10	0;
	2	0	0	2	10	0;
	2	0	0	2	10	0;
	2	0	0	2	10	0;
	2	0	0	2	10	0;
	2	0	0	2	10	0;
	2	0	0	2	0.0	0;
	2	0	0	2	0.0	0;
	2	0	0	2	0.0	0;
	2	0	0	2	0.0	0;
	2	0	0	2	0.0	0;
	2	0	0	2	0.0	0;
	2	0	0	2	0.0	0;
	2	0	0	2	0.0	0;
	2	0	0	2	0.0	0;
	2	0	0	2	0.0	0;
	2	0	0	2	0.0	0;
	2	0	0	2	0.0	0;
	2	0	0	2	10	0;
	2	0	0	2	10	0;
	2	0	0	2	10	0;
	2	0	0	2	10	0;
	2	0	0	2	10	0;
	2	0	0	2	0.0	0;
	2	0	0	2	0.0	0;
	2	0	0	2	0.0	0;
	2	0	0	2	0.0	0;
	2	0	0	2	0.0	0;
	2	0	0	2	0.0	0;
	2	0	0	2	0.0	0;
	2	0	0	2	10	0;
	2	0	0	2	10	0;
	2	0	0	2	0.0	0;
	2	0	0	2	0.0	0;
	2	0	0	2	0.0	0;
	2	0	0	2	0.0	0;
	2	0	0	2	0.0	0;
	2	0	0	2	0.0	0;
	2	0	0	2	10	0;
	2	0	0	2	10	0;
	2	0	0	2	10	0;
	2	0	0	2	0.0	0;
	2	0	0	2	0.0	0;
	2	0	0	2	0.0	0;
	2	0	0	2	0.0	0;
	2	0	0	2	10	0;
	2	0	0	2	10	0;
	2	0	0	2	10	0;
	2	0	0	2	10	0;
	2	0	0	2	0.0	0;
	2	0	0	2	0.0	0;
	2	0	0	2	10	0;
	2	0	0	2	10	0;
	2	0	0	2	10	0;
	2	0	0	2	10	0;
	2	0	0	2	10	0;
	2	0	0	2	10	0;
	2	0	0	2	0.0	0;
	2	0	0	2	0.0	0;
	2	0	0	2	0.0	0;
	2	0	0	2	0.0	0;
	2	0	0	2	0.0	0;
	2	0	0	2	0.0	0;
	2	0	0	2	0.0	0;
	2	0	0	2	10	0;
	2	0	0	2	0.0	0;
	2	0	0	2	0.0	0;
	2	0	0	2	0.0	0;
];

%Bus Coordinates

mpc.bus_coord = [
	35.046387	32.500496;
	35.046387	32.500496;
	35.36499	32.481963;
	35.079346	32.333559;
	34.760742	31.147006;
	34.760742	31.147006;
	35.310059	30.892797;
	34.936523	29.52567;
	34.562988	31.681433;
	34.562988	31.681433;
	34.727783	31.961484;
	34.94751	32.639375;
	34.881592	32.194209;
	35.134277	32.898038;
	35.441895	32.98102;
	34.716797	31.784217;
	34.958496	32.063956;
	34.958496	32.063956;
	34.749756	31.475524;
	34.749756	31.475524;
	35.002441	31.531726;
	34.49707	31.522361;
	35.167236	31.774878;
	35.167236	31.774878;
	35.255127	32.277845;
	34.925537	30.126124;
	34.782715	31.024694;
	34.936523	32.026706;
	35.046387	32.676373;
	34.760742	32.017392;
	35.002441	32.398516;
	34.969482	32.704111;
];

%Bus Names

mpc.bus_name = {
	'Unnamed 3';
	'Unnamed 4';
	'Jenin';
	'Tul karm';
	'Beer Sheva';
	'Beer Sheva';
	'Sdom';
	'Eilat';
	'Ashkelon';
	'Ashkelon';
	'Ashdod';
	'Hadera';
	'Tel-Aviv';
	'Zvulun';
	'Tiberias';
	'Unnamed 29';
	'Unnamed 30';
	'Unnamed 31';
	'Unnamed 32';
	'Unnamed 33';
	'Turqumia';
	'Jabalia';
	'Jerusalem';
	'Jerusalem';
	'Nablus';
	'Unnamed 1143';
	'Unnamed 1151';
	'Unnamed 1156';
	'Unnamed 1220';
	'Unnamed 1295';
	'Unnamed 1320';
	'Unnamed 1351';
};

